82

C         24.39171        6.44193       19.32578
C         25.08486        5.63540       18.51925
H         24.62877        5.06078       17.94463
C         25.08486        7.24845       20.13230
H         24.62877        7.82307       20.70692
O         29.21825        5.66374       18.54759
C         28.64080        6.44193       19.32578
C         27.14370        6.44193       19.32578
C         26.45054        5.63540       18.51925
H         26.90663        5.06078       17.94463
O         29.21825        7.22011       20.10396
C         26.45054        7.24845       20.13230
H         26.90663        7.82307       20.70692
Zn        31.08590        5.31820       18.20205
Zn        31.08590        7.56565       20.44950
O         31.43144       16.33440       20.10396
O         32.20963        6.44193       19.32578
O         31.43144        3.45055       18.54759
O         31.43144        5.66374       16.33440
Zn        33.33335        5.31820       20.44950
O         32.98781        5.66374       22.31715
C         32.20963        6.44193       22.89460
C         32.20963        6.44193       24.39171
C         33.01615        5.63540       25.08486
H         33.59077        5.06078       24.62877
O         31.43144        7.22011       22.31715
C         31.40310        7.24845       25.08486
H         30.82848        7.82307       24.62877
C         32.20963        6.44193       27.14370
C         33.01615        5.63540       26.45054
H         33.59077        5.06078       26.90663
C         31.40310        7.24845       26.45054
H         30.82848        7.82307       26.90663
C         32.20963        2.87310       19.32578
O         32.98781        3.45055       20.10396
Zn        33.33335        7.56565       18.20205
O         31.43144        9.43330       20.10396
O         35.20100        5.66374       20.10396
O         32.98781       16.33440       18.54759
C         32.20963       15.75695       19.32578
C         32.20963       14.25985       19.32578
C         33.01615       13.56669       18.51925
H         33.59077       14.02278       17.94463
C         31.40310       13.56669       20.13230
H         30.82848       14.02278       20.70692
O         32.98781        9.43330       18.54759
C         32.20963       10.01075       19.32578
C         32.20963       11.50785       19.32578
C         33.01615       12.20101       18.51925
H         33.59077       11.74492       17.94463
C         31.40310       12.20101       20.13230
H         30.82848       11.74492       20.70692
C         32.20963        6.44193       11.50785
C         31.40310        5.63540       12.20101
H         30.82848        5.06078       11.74492
C         33.01615        7.24845       12.20101
H         33.59077        7.82307       11.74492
C         32.20963        6.44193       15.75695
C         32.20963        6.44193       14.25985
C         31.40310        5.63540       13.56669
H         30.82848        5.06078       14.02278
O         32.98781        7.22011       16.33440
C         33.01615        7.24845       13.56669
H         33.59077        7.82307       14.02278
O         35.20100        7.22011       18.54759
C         40.02755        6.44193       19.32578
C         39.33439        5.63540       20.13230
H         39.79048        5.06078       20.70692
C         39.33439        7.24845       18.51925
H         39.79048        7.82307       17.94463
C         35.77845        6.44193       19.32578
C         37.27555        6.44193       19.32578
C         37.96871        5.63540       20.13230
H         37.51262        5.06078       20.70692
C         37.96871        7.24845       18.51925
H         37.51262        7.82307       17.94463
H         23.35971        6.44193       19.32578
H         32.20963        6.44192       10.47585
H         32.20963        6.44193       28.17570
H         41.05954        6.44193       19.32578
H         32.78311       17.19232       18.23128
H         31.51481        2.44959       20.02060
